12
O1
O  -0.52573   0.00000   0.85065
O   0.52573   0.00000   0.85065
O  -0.52573   0.00000  -0.85065
O   0.52573   0.00000  -0.85065
O   0.00000   0.85065   0.52573
O   0.00000   0.85065  -0.52573
O   0.00000  -0.85065   0.52573
O   0.00000  -0.85065  -0.52573
O   0.85065   0.52573   0.00000
O  -0.85065   0.52573   0.00000
O   0.85065  -0.52573   0.00000
O  -0.85065  -0.52573   0.00000
